Version 4
SHEET 1 2680 1348
WIRE -672 -272 -704 -272
WIRE -704 -224 -704 -272
WIRE -704 -112 -704 -144
WIRE -672 -112 -704 -112
WIRE -704 -80 -704 -112
WIRE -304 -64 -384 -64
WIRE -240 -64 -304 -64
WIRE -64 -64 -240 -64
WIRE 160 -64 -64 -64
WIRE 336 -64 160 -64
WIRE 704 -64 656 -64
WIRE 736 -64 704 -64
WIRE 848 -64 816 -64
WIRE 992 -64 848 -64
WIRE 1104 -64 992 -64
WIRE -704 32 -704 0
WIRE -672 32 -704 32
WIRE -240 48 -240 -64
WIRE 160 48 160 -64
WIRE -704 64 -704 32
WIRE -384 80 -384 -64
WIRE 992 80 992 -64
WIRE 1104 80 1104 -64
WIRE 0 96 -112 96
WIRE 400 96 288 96
WIRE -64 128 -64 -64
WIRE 336 128 336 -64
WIRE -112 144 -112 96
WIRE -96 144 -112 144
WIRE 288 144 288 96
WIRE 304 144 288 144
WIRE 0 160 0 96
WIRE 0 160 -32 160
WIRE 16 160 0 160
WIRE 400 160 400 96
WIRE 400 160 368 160
WIRE 416 160 400 160
WIRE -704 176 -704 144
WIRE -672 176 -704 176
WIRE -240 176 -240 128
WIRE -96 176 -240 176
WIRE 160 176 160 128
WIRE 304 176 160 176
WIRE -704 208 -704 176
WIRE -240 208 -240 176
WIRE 160 208 160 176
WIRE -704 320 -704 288
WIRE -384 320 -384 160
WIRE -384 320 -704 320
WIRE -240 320 -240 288
WIRE -240 320 -384 320
WIRE -64 320 -64 192
WIRE -64 320 -240 320
WIRE 160 320 160 288
WIRE 160 320 -64 320
WIRE 336 320 336 192
WIRE 336 320 160 320
WIRE 992 320 992 160
WIRE 992 320 336 320
WIRE 1104 320 1104 160
WIRE 1104 320 992 320
WIRE -384 352 -384 320
WIRE -160 480 -176 480
WIRE -64 480 -80 480
WIRE 1136 480 1120 480
WIRE 1232 480 1216 480
WIRE 2304 480 2288 480
WIRE 2400 480 2384 480
WIRE 640 496 624 496
WIRE 736 496 720 496
WIRE 1808 496 1792 496
WIRE 1904 496 1888 496
WIRE -112 544 -128 544
WIRE 1184 544 1168 544
WIRE 2352 544 2336 544
WIRE -416 560 -432 560
WIRE -176 560 -176 480
WIRE -176 560 -336 560
WIRE 688 560 672 560
WIRE 1856 560 1840 560
WIRE -128 592 -128 544
WIRE 1168 592 1168 544
WIRE 2336 592 2336 544
WIRE -176 608 -176 560
WIRE -160 608 -176 608
WIRE 672 608 672 560
WIRE 1040 608 960 608
WIRE 1120 608 1120 480
WIRE 1136 608 1120 608
WIRE 1840 608 1840 560
WIRE 2208 608 2128 608
WIRE 2288 608 2288 480
WIRE 2304 608 2288 608
WIRE -64 624 -64 480
WIRE -64 624 -96 624
WIRE 16 624 -64 624
WIRE 80 624 16 624
WIRE 192 624 160 624
WIRE 496 624 416 624
WIRE 624 624 624 496
WIRE 624 624 576 624
WIRE 640 624 624 624
WIRE 1232 624 1232 480
WIRE 1232 624 1200 624
WIRE 1312 624 1232 624
WIRE 1664 624 1584 624
WIRE 1792 624 1792 496
WIRE 1792 624 1744 624
WIRE 1808 624 1792 624
WIRE 2400 624 2400 480
WIRE 2400 624 2368 624
WIRE 2480 624 2400 624
WIRE -160 640 -208 640
WIRE 736 640 736 496
WIRE 736 640 704 640
WIRE 816 640 736 640
WIRE 976 640 816 640
WIRE 1088 640 1056 640
WIRE 1136 640 1088 640
WIRE 1904 640 1904 496
WIRE 1904 640 1872 640
WIRE 1984 640 1904 640
WIRE 2144 640 1984 640
WIRE 2256 640 2224 640
WIRE 2304 640 2256 640
WIRE 432 656 416 656
WIRE 592 656 512 656
WIRE 640 656 592 656
WIRE 1600 656 1584 656
WIRE 1760 656 1680 656
WIRE 1808 656 1760 656
WIRE -416 688 -432 688
WIRE -208 688 -208 640
WIRE -208 688 -336 688
WIRE -128 688 -128 656
WIRE 192 688 192 624
WIRE -208 704 -208 688
WIRE 592 704 592 656
WIRE 1088 704 1088 640
WIRE 1760 704 1760 656
WIRE 2256 704 2256 640
WIRE 192 784 192 752
WIRE 592 816 592 784
WIRE 672 816 672 672
WIRE 672 816 592 816
WIRE 1088 816 1088 784
WIRE 1168 816 1168 656
WIRE 1168 816 1088 816
WIRE 1760 816 1760 784
WIRE 1840 816 1840 672
WIRE 1840 816 1760 816
WIRE 2256 816 2256 784
WIRE 2336 816 2336 656
WIRE 2336 816 2256 816
WIRE -208 864 -208 784
WIRE -208 864 -272 864
WIRE 672 864 672 816
WIRE 1168 864 1168 816
WIRE 1840 864 1840 816
WIRE 2336 864 2336 816
WIRE 1136 944 1120 944
WIRE 1232 944 1216 944
WIRE 2304 944 2288 944
WIRE 2400 944 2384 944
WIRE 640 960 624 960
WIRE 736 960 720 960
WIRE 1808 960 1792 960
WIRE 1904 960 1888 960
WIRE 1184 1008 1168 1008
WIRE 2352 1008 2336 1008
WIRE 688 1024 672 1024
WIRE 1856 1024 1840 1024
WIRE 1168 1056 1168 1008
WIRE 2336 1056 2336 1008
WIRE 672 1072 672 1024
WIRE 1040 1072 960 1072
WIRE 1120 1072 1120 944
WIRE 1136 1072 1120 1072
WIRE 1840 1072 1840 1024
WIRE 2208 1072 2128 1072
WIRE 2288 1072 2288 944
WIRE 2304 1072 2288 1072
WIRE 496 1088 416 1088
WIRE 624 1088 624 960
WIRE 624 1088 576 1088
WIRE 640 1088 624 1088
WIRE 1232 1088 1232 944
WIRE 1232 1088 1200 1088
WIRE 1312 1088 1232 1088
WIRE 1664 1088 1504 1088
WIRE 1792 1088 1792 960
WIRE 1792 1088 1744 1088
WIRE 1808 1088 1792 1088
WIRE 2400 1088 2400 944
WIRE 2400 1088 2368 1088
WIRE 2480 1088 2400 1088
WIRE 736 1104 736 960
WIRE 736 1104 704 1104
WIRE 816 1104 736 1104
WIRE 976 1104 816 1104
WIRE 1088 1104 1056 1104
WIRE 1136 1104 1088 1104
WIRE 1904 1104 1904 960
WIRE 1904 1104 1872 1104
WIRE 1984 1104 1904 1104
WIRE 2144 1104 1984 1104
WIRE 2256 1104 2224 1104
WIRE 2304 1104 2256 1104
WIRE 432 1120 416 1120
WIRE 592 1120 512 1120
WIRE 640 1120 592 1120
WIRE 1600 1120 1584 1120
WIRE 1760 1120 1680 1120
WIRE 1808 1120 1760 1120
WIRE 592 1168 592 1120
WIRE 1088 1168 1088 1104
WIRE 1504 1168 1504 1088
WIRE 1760 1168 1760 1120
WIRE 2256 1168 2256 1104
WIRE 592 1280 592 1248
WIRE 672 1280 672 1136
WIRE 672 1280 592 1280
WIRE 1088 1280 1088 1248
WIRE 1168 1280 1168 1120
WIRE 1168 1280 1088 1280
WIRE 1760 1280 1760 1248
WIRE 1840 1280 1840 1136
WIRE 1840 1280 1760 1280
WIRE 2256 1280 2256 1248
WIRE 2336 1280 2336 1120
WIRE 2336 1280 2256 1280
WIRE 672 1328 672 1280
WIRE 1168 1328 1168 1280
WIRE 1840 1328 1840 1280
WIRE 2336 1328 2336 1280
FLAG 704 -64 CSR+
FLAG 848 -64 CSR-
FLAG -432 688 CSR+
FLAG -432 560 CSR-
FLAG -272 864 1V65_Ref
FLAG -128 688 0
FLAG -112 544 3V3_Bus
FLAG 16 624 Vcurrent
FLAG 16 160 1V65_Ref
FLAG -304 -64 3V3_Bus
FLAG -384 352 0
FLAG 416 160 1V_Ref
FLAG -672 -272 V4
FLAG -672 -112 V3
FLAG -672 32 V2
FLAG -672 176 V1
FLAG 416 656 V4
FLAG 416 624 V3
FLAG 672 864 0
FLAG 688 560 3V3_Bus
FLAG 816 640 V4-3
FLAG 1168 864 0
FLAG 1184 544 3V3_Bus
FLAG 1312 624 V4-3_Scaled
FLAG 960 608 1V_Ref
FLAG 416 1120 V3
FLAG 416 1088 V2
FLAG 672 1328 0
FLAG 688 1024 3V3_Bus
FLAG 816 1104 V3-2
FLAG 1168 1328 0
FLAG 1184 1008 3V3_Bus
FLAG 1312 1088 V3-2_Scaled
FLAG 960 1072 1V_Ref
FLAG 1584 656 V2
FLAG 1584 624 V1
FLAG 1840 864 0
FLAG 1856 560 3V3_Bus
FLAG 1984 640 V2-1
FLAG 2336 864 0
FLAG 2352 544 3V3_Bus
FLAG 2480 624 V2-1_Scaled
FLAG 2128 608 1V_Ref
FLAG 1584 1120 V1
FLAG 1840 1328 0
FLAG 1856 1024 3V3_Bus
FLAG 1984 1104 V1-GND
FLAG 2336 1328 0
FLAG 2352 1008 3V3_Bus
FLAG 2480 1088 V1-GND_Scaled
FLAG 2128 1072 1V_Ref
FLAG 1504 1168 0
FLAG 656 -64 V4
FLAG 192 784 0
SYMBOL res 720 -48 R270
WINDOW 0 32 56 VTop 2
WINDOW 3 0 56 VBottom 2
SYMATTR InstName R1
SYMATTR Value 0.002
SYMBOL res -320 544 R90
WINDOW 0 0 56 VBottom 2
WINDOW 3 32 56 VTop 2
SYMATTR InstName R3
SYMATTR Value 5k
SYMBOL res -320 672 R90
WINDOW 0 0 56 VBottom 2
WINDOW 3 32 56 VTop 2
SYMATTR InstName R4
SYMATTR Value 5k
SYMBOL res -224 688 R0
SYMATTR InstName R5
SYMATTR Value 165k
SYMBOL res -256 32 R0
SYMATTR InstName R9
SYMATTR Value 10k
SYMBOL res -256 192 R0
SYMATTR InstName R10
SYMATTR Value 10k
SYMBOL voltage -384 64 R0
WINDOW 123 0 0 Left 0
WINDOW 39 0 0 Left 0
SYMATTR InstName V3
SYMATTR Value 3.3v
SYMBOL OpAmps\\UniversalOpamp2 -128 624 R0
SYMATTR InstName U3
SYMBOL res -64 464 R90
WINDOW 0 0 56 VBottom 2
WINDOW 3 32 56 VTop 2
SYMATTR InstName R2
SYMATTR Value 165k
SYMBOL OpAmps\\UniversalOpamp2 -64 160 R0
SYMATTR InstName U1
SYMBOL res 144 32 R0
SYMATTR InstName R6
SYMATTR Value 13.8k
SYMBOL res 144 192 R0
SYMATTR InstName R7
SYMATTR Value 6k
SYMBOL OpAmps\\UniversalOpamp2 336 160 R0
SYMATTR InstName U2
SYMBOL voltage -704 192 R0
WINDOW 123 0 0 Left 0
WINDOW 39 0 0 Left 0
SYMATTR InstName V1
SYMATTR Value SINE(4.2 0.1 4k)
SYMBOL voltage -704 48 R0
WINDOW 123 0 0 Left 0
WINDOW 39 0 0 Left 0
SYMATTR InstName V4
SYMATTR Value SINE(4.2 0.1 3k)
SYMBOL voltage -704 -96 R0
WINDOW 123 0 0 Left 0
WINDOW 39 0 0 Left 0
SYMATTR InstName V5
SYMATTR Value SINE(4.2 0.1 2k)
SYMBOL voltage -704 -240 R0
WINDOW 123 0 0 Left 0
WINDOW 39 0 0 Left 0
SYMATTR InstName V6
SYMATTR Value SINE(4.2 0.1 1k)
SYMBOL res 592 608 R90
WINDOW 0 0 56 VBottom 2
WINDOW 3 32 56 VTop 2
SYMATTR InstName R11
SYMATTR Value 10k
SYMBOL res 528 640 R90
WINDOW 0 0 56 VBottom 2
WINDOW 3 32 56 VTop 2
SYMATTR InstName R12
SYMATTR Value 10k
SYMBOL res 576 688 R0
SYMATTR InstName R13
SYMATTR Value 5k
SYMBOL OpAmps\\UniversalOpamp2 672 640 R0
SYMATTR InstName U4
SYMBOL res 736 480 R90
WINDOW 0 0 56 VBottom 2
WINDOW 3 32 56 VTop 2
SYMATTR InstName R14
SYMATTR Value 5k
SYMBOL OpAmps\\UniversalOpamp2 1168 624 R0
SYMATTR InstName U5
SYMBOL res 1232 464 R90
WINDOW 0 0 56 VBottom 2
WINDOW 3 32 56 VTop 2
SYMATTR InstName R15
SYMATTR Value 10k
SYMBOL res 1136 592 R90
WINDOW 0 0 56 VBottom 2
WINDOW 3 32 56 VTop 2
SYMATTR InstName R16
SYMATTR Value 10k
SYMBOL res 1072 624 R90
WINDOW 0 0 56 VBottom 2
WINDOW 3 32 56 VTop 2
SYMATTR InstName R17
SYMATTR Value 10k
SYMBOL res 1072 688 R0
SYMATTR InstName R18
SYMATTR Value 10k
SYMBOL res 592 1072 R90
WINDOW 0 0 56 VBottom 2
WINDOW 3 32 56 VTop 2
SYMATTR InstName R19
SYMATTR Value 10k
SYMBOL res 528 1104 R90
WINDOW 0 0 56 VBottom 2
WINDOW 3 32 56 VTop 2
SYMATTR InstName R20
SYMATTR Value 10k
SYMBOL res 576 1152 R0
SYMATTR InstName R21
SYMATTR Value 5k
SYMBOL OpAmps\\UniversalOpamp2 672 1104 R0
SYMATTR InstName U6
SYMBOL res 736 944 R90
WINDOW 0 0 56 VBottom 2
WINDOW 3 32 56 VTop 2
SYMATTR InstName R22
SYMATTR Value 5k
SYMBOL OpAmps\\UniversalOpamp2 1168 1088 R0
SYMATTR InstName U7
SYMBOL res 1232 928 R90
WINDOW 0 0 56 VBottom 2
WINDOW 3 32 56 VTop 2
SYMATTR InstName R23
SYMATTR Value 10k
SYMBOL res 1136 1056 R90
WINDOW 0 0 56 VBottom 2
WINDOW 3 32 56 VTop 2
SYMATTR InstName R24
SYMATTR Value 10k
SYMBOL res 1072 1088 R90
WINDOW 0 0 56 VBottom 2
WINDOW 3 32 56 VTop 2
SYMATTR InstName R25
SYMATTR Value 10k
SYMBOL res 1072 1152 R0
SYMATTR InstName R26
SYMATTR Value 10k
SYMBOL res 1760 608 R90
WINDOW 0 0 56 VBottom 2
WINDOW 3 32 56 VTop 2
SYMATTR InstName R27
SYMATTR Value 10k
SYMBOL res 1696 640 R90
WINDOW 0 0 56 VBottom 2
WINDOW 3 32 56 VTop 2
SYMATTR InstName R28
SYMATTR Value 10k
SYMBOL res 1744 688 R0
SYMATTR InstName R29
SYMATTR Value 5k
SYMBOL OpAmps\\UniversalOpamp2 1840 640 R0
SYMATTR InstName U8
SYMBOL res 1904 480 R90
WINDOW 0 0 56 VBottom 2
WINDOW 3 32 56 VTop 2
SYMATTR InstName R30
SYMATTR Value 5k
SYMBOL OpAmps\\UniversalOpamp2 2336 624 R0
SYMATTR InstName U9
SYMBOL res 2400 464 R90
WINDOW 0 0 56 VBottom 2
WINDOW 3 32 56 VTop 2
SYMATTR InstName R31
SYMATTR Value 10k
SYMBOL res 2304 592 R90
WINDOW 0 0 56 VBottom 2
WINDOW 3 32 56 VTop 2
SYMATTR InstName R32
SYMATTR Value 10k
SYMBOL res 2240 624 R90
WINDOW 0 0 56 VBottom 2
WINDOW 3 32 56 VTop 2
SYMATTR InstName R33
SYMATTR Value 10k
SYMBOL res 2240 688 R0
SYMATTR InstName R34
SYMATTR Value 10k
SYMBOL res 1760 1072 R90
WINDOW 0 0 56 VBottom 2
WINDOW 3 32 56 VTop 2
SYMATTR InstName R35
SYMATTR Value 10k
SYMBOL res 1696 1104 R90
WINDOW 0 0 56 VBottom 2
WINDOW 3 32 56 VTop 2
SYMATTR InstName R36
SYMATTR Value 10k
SYMBOL res 1744 1152 R0
SYMATTR InstName R37
SYMATTR Value 5k
SYMBOL OpAmps\\UniversalOpamp2 1840 1104 R0
SYMATTR InstName U10
SYMBOL res 1904 944 R90
WINDOW 0 0 56 VBottom 2
WINDOW 3 32 56 VTop 2
SYMATTR InstName R38
SYMATTR Value 5k
SYMBOL OpAmps\\UniversalOpamp2 2336 1088 R0
SYMATTR InstName U11
SYMBOL res 2400 928 R90
WINDOW 0 0 56 VBottom 2
WINDOW 3 32 56 VTop 2
SYMATTR InstName R39
SYMATTR Value 10k
SYMBOL res 2304 1056 R90
WINDOW 0 0 56 VBottom 2
WINDOW 3 32 56 VTop 2
SYMATTR InstName R40
SYMATTR Value 10k
SYMBOL res 2240 1088 R90
WINDOW 0 0 56 VBottom 2
WINDOW 3 32 56 VTop 2
SYMATTR InstName R41
SYMATTR Value 10k
SYMBOL res 2240 1152 R0
SYMATTR InstName R42
SYMATTR Value 10k
SYMBOL res 1088 64 R0
SYMATTR InstName R43
SYMATTR Value 0.684
SYMBOL res 176 608 R90
WINDOW 0 0 56 VBottom 2
WINDOW 3 32 56 VTop 2
SYMATTR InstName R44
SYMATTR Value 8k
SYMBOL cap 176 688 R0
SYMATTR InstName C2
SYMATTR Value 200n
SYMBOL current 992 160 R180
WINDOW 0 24 80 Left 2
WINDOW 3 24 0 Left 2
WINDOW 123 0 0 Left 0
WINDOW 39 0 0 Left 0
SYMATTR InstName I1
SYMATTR Value PULSE(0 30 5m 1n 1n 0.05m 0.1m)
TEXT -434 376 Left 2 !.tran 50m
