Version 4
SHEET 1 1404 680
WIRE -320 -256 -976 -256
WIRE 16 -256 -224 -256
WIRE 96 -256 16 -256
WIRE 368 -256 96 -256
WIRE 624 -256 368 -256
WIRE 624 -160 624 -256
WIRE 368 -144 368 -256
WIRE 432 -144 368 -144
WIRE 544 -144 512 -144
WIRE 576 -144 544 -144
WIRE 16 -112 16 -256
WIRE 544 -48 544 -144
WIRE 544 -48 400 -48
WIRE -976 -32 -976 -256
WIRE -240 -16 -240 -208
WIRE 16 -16 16 -32
WIRE 16 -16 -240 -16
WIRE 912 16 736 16
WIRE -736 32 -864 32
WIRE -576 32 -672 32
WIRE -384 32 -496 32
WIRE -240 32 -240 -16
WIRE 624 32 624 -64
WIRE 400 64 400 -48
WIRE 912 64 912 16
WIRE -864 112 -864 32
WIRE -576 112 -864 112
WIRE -384 112 -384 32
WIRE -384 112 -496 112
WIRE -288 112 -384 112
WIRE -864 128 -864 112
WIRE 96 128 96 -256
WIRE 624 128 624 112
WIRE 688 128 624 128
WIRE 736 128 736 16
WIRE 736 128 688 128
WIRE -384 144 -384 112
WIRE 352 144 256 144
WIRE 1056 144 960 144
WIRE 624 160 624 128
WIRE 688 160 688 128
WIRE 256 176 256 144
WIRE 1056 176 1056 144
WIRE -976 320 -976 48
WIRE -864 320 -864 208
WIRE -864 320 -976 320
WIRE -384 320 -384 208
WIRE -384 320 -864 320
WIRE -240 320 -240 128
WIRE -240 320 -384 320
WIRE 96 320 96 208
WIRE 96 320 -240 320
WIRE 256 320 256 256
WIRE 256 320 96 320
WIRE 400 320 400 160
WIRE 400 320 256 320
WIRE 624 320 624 224
WIRE 624 320 400 320
WIRE 688 320 688 240
WIRE 688 320 624 320
WIRE 912 320 912 160
WIRE 912 320 688 320
WIRE 1056 320 1056 256
WIRE 1056 320 912 320
WIRE 624 352 624 320
FLAG 624 352 0
SYMBOL voltage 96 112 R0
WINDOW 123 0 0 Left 0
WINDOW 39 0 0 Left 0
SYMATTR InstName V1
SYMATTR Value 18
SYMBOL nmos 352 64 R0
SYMATTR InstName M1
SYMATTR Value Si7336ADP
SYMBOL voltage 256 160 R0
WINDOW 123 0 0 Left 0
WINDOW 39 0 0 Left 0
SYMATTR InstName V2
SYMATTR Value PULSE(0 5 10m 1u 1u 5m 10m)
SYMBOL zener 640 224 R180
WINDOW 0 24 64 Left 2
WINDOW 3 24 0 Left 2
SYMATTR InstName D3
SYMATTR Value 1N750
SYMBOL pmos 576 -64 M180
SYMATTR InstName M2
SYMATTR Value FDS4953
SYMBOL res 528 -160 R90
WINDOW 0 0 56 VBottom 2
WINDOW 3 32 56 VTop 2
SYMATTR InstName R2
SYMATTR Value 10k
SYMBOL res 608 16 R0
SYMATTR InstName R1
SYMATTR Value 10k
SYMBOL res 672 144 R0
SYMATTR InstName R3
SYMATTR Value 100k
SYMBOL voltage 1056 160 M0
WINDOW 123 0 0 Left 0
WINDOW 39 0 0 Left 0
SYMATTR InstName V3
SYMATTR Value PULSE(0 5 20m 1u 1u 20m 40m)
SYMBOL nmos 960 64 M0
SYMATTR InstName M3
SYMATTR Value Si7336ADP
SYMBOL pmos -320 -208 R270
SYMATTR InstName M4
SYMATTR Value FDS4953
SYMBOL nmos -288 32 R0
SYMATTR InstName M5
SYMATTR Value Si7336ADP
SYMBOL res -992 -48 R0
SYMATTR InstName R6
SYMATTR Value 1
SYMBOL voltage -864 112 M0
WINDOW 123 0 0 Left 0
WINDOW 39 0 0 Left 0
SYMATTR InstName V4
SYMATTR Value PULSE(0 3.3 10m 1u 1u 200m 250m)
SYMBOL res 0 -128 R0
SYMATTR InstName R5
SYMATTR Value 10k
SYMBOL res -480 96 R90
WINDOW 0 0 56 VBottom 2
WINDOW 3 32 56 VTop 2
SYMATTR InstName R7
SYMATTR Value 50k
SYMBOL cap -400 144 R0
SYMATTR InstName C2
SYMATTR Value 1µ
SYMBOL diode -672 16 R90
WINDOW 0 0 32 VBottom 2
WINDOW 3 32 32 VTop 2
SYMATTR InstName D2
SYMBOL res -480 16 R90
WINDOW 0 0 56 VBottom 2
WINDOW 3 32 56 VTop 2
SYMATTR InstName R4
SYMATTR Value 10
TEXT 64 376 Left 2 !.tran 500m
