Version 4
SHEET 1 1404 680
WIRE 368 -256 96 -256
WIRE 624 -256 368 -256
WIRE 624 -160 624 -256
WIRE 368 -144 368 -256
WIRE 432 -144 368 -144
WIRE 544 -144 512 -144
WIRE 576 -144 544 -144
WIRE 544 -48 544 -144
WIRE 544 -48 400 -48
WIRE 912 16 736 16
WIRE 624 32 624 -64
WIRE 400 64 400 -48
WIRE 912 64 912 16
WIRE 96 128 96 -256
WIRE 624 128 624 112
WIRE 688 128 624 128
WIRE 736 128 736 16
WIRE 736 128 688 128
WIRE 352 144 256 144
WIRE 1056 144 960 144
WIRE 624 160 624 128
WIRE 688 160 688 128
WIRE 256 176 256 144
WIRE 1056 176 1056 144
WIRE 96 320 96 208
WIRE 256 320 256 256
WIRE 256 320 96 320
WIRE 400 320 400 160
WIRE 400 320 256 320
WIRE 624 320 624 224
WIRE 624 320 400 320
WIRE 688 320 688 240
WIRE 688 320 624 320
WIRE 912 320 912 160
WIRE 912 320 688 320
WIRE 1056 320 1056 256
WIRE 1056 320 912 320
WIRE 624 352 624 320
FLAG 624 352 0
SYMBOL voltage 96 112 R0
WINDOW 123 0 0 Left 0
WINDOW 39 0 0 Left 0
SYMATTR InstName V1
SYMATTR Value 18
SYMBOL nmos 352 64 R0
SYMATTR InstName M1
SYMATTR Value Si7336ADP
SYMBOL voltage 256 160 R0
WINDOW 123 0 0 Left 0
WINDOW 39 0 0 Left 0
SYMATTR InstName V2
SYMATTR Value PULSE(0 5 10m 1u 1u 5m 10m)
SYMBOL zener 640 224 R180
WINDOW 0 24 64 Left 2
WINDOW 3 24 0 Left 2
SYMATTR InstName D3
SYMATTR Value 1N750
SYMBOL pmos 576 -64 M180
SYMATTR InstName M2
SYMATTR Value FDS4953
SYMBOL res 528 -160 R90
WINDOW 0 0 56 VBottom 2
WINDOW 3 32 56 VTop 2
SYMATTR InstName R2
SYMATTR Value 10k
SYMBOL res 608 16 R0
SYMATTR InstName R1
SYMATTR Value 10k
SYMBOL res 672 144 R0
SYMATTR InstName R3
SYMATTR Value 100k
SYMBOL voltage 1056 160 M0
WINDOW 123 0 0 Left 0
WINDOW 39 0 0 Left 0
SYMATTR InstName V3
SYMATTR Value PULSE(0 5 20m 1u 1u 20m 40m)
SYMBOL nmos 960 64 M0
SYMATTR InstName M3
SYMATTR Value Si7336ADP
TEXT 64 376 Left 2 !.tran 50m
